  0
SECTION
  2
ENTITIES
999
DXF created from EnergyPlus
999
Program Version,EnergyPlus, Version 8.6.0-198c6a3cff, YMD=2016.12.07 15:24
999
Polygon Action,ThickPolyline
999
Color Scheme,Default
999
Text - True North
  0
TEXT
  8
1
  6
Continuous
 62
  3
 10
      -11.00000
 20
        3.00000
 30
        0.10000
 40
 .25
  1
True North
 41
 0.0
  7
MONOTXT
210
0.0
220
0.0
230
1.0
999
Text - Building Title
  0
TEXT
  8
1
  6
Continuous
 62
  3
 10
      -14.00000
 20
       -1.00000
 30
        0.10000
 40
 .4
  1
Building - Exercise 1A
 41
 0.0
  7
MONOTXT
210
0.0
220
0.0
230
1.0
999
North Arrow Stem
  0
3DFACE
  8
1
 62
  3
 10
      -10.00000
 20
        3.00000
 30
        0.10000
 11
      -10.00000
 21
        3.00000
 31
        0.00000
 12
      -10.00000
 22
        0.00000
 32
        0.00000
 13
      -10.00000
 23
        0.00000
 33
        0.10000
999
North Arrow Head 1
  0
3DFACE
  8
1
 62
  3
 10
      -10.00000
 20
        3.00000
 30
        0.10000
 11
      -10.00000
 21
        3.00000
 31
        0.00000
 12
      -10.50000
 22
        2.13398
 32
        0.00000
 13
      -10.50000
 23
        2.13398
 33
        0.10000
999
North Arrow Head 2
  0
3DFACE
  8
1
 62
  3
 10
      -10.00000
 20
        3.00000
 30
        0.10000
 11
      -10.00000
 21
        3.00000
 31
        0.00000
 12
       -9.50000
 22
        2.13398
 32
        0.00000
 13
       -9.50000
 23
        2.13398
 33
        0.10000
999
North Arrow Side 1
  0
3DFACE
  8
1
 62
  3
 10
      -10.50000
 20
        4.50000
 30
        0.10000
 11
      -10.50000
 21
        4.50000
 31
        0.00000
 12
      -10.50000
 22
        3.50000
 32
        0.00000
 13
      -10.50000
 23
        3.50000
 33
        0.10000
999
North Arrow Side 2
  0
3DFACE
  8
1
 62
  3
 10
      -10.50000
 20
        4.50000
 30
        0.10000
 11
      -10.50000
 21
        4.50000
 31
        0.00000
 12
       -9.50000
 22
        3.50000
 32
        0.00000
 13
       -9.50000
 23
        3.50000
 33
        0.10000
999
North Arrow Side 3
  0
3DFACE
  8
1
 62
  3
 10
       -9.50000
 20
        4.50000
 30
        0.10000
 11
       -9.50000
 21
        4.50000
 31
        0.00000
 12
       -9.50000
 22
        3.50000
 32
        0.00000
 13
       -9.50000
 23
        3.50000
 33
        0.10000
999
Zone Names
999
Zone=1:ZONE_ONE
999
ZONE ONE:SURFACE NORTH
  0
3DFACE
  8
ZONE_ONE
 62
 43
 10
        8.00000
 20
        6.00000
 30
        2.70000
 11
        8.00000
 21
        6.00000
 31
        0.00000
 12
        0.00000
 22
        6.00000
 32
        0.00000
 13
        0.00000
 23
        6.00000
 33
        2.70000
999
ZONE ONE:ZONE SURFACE EAST
  0
3DFACE
  8
ZONE_ONE
 62
 43
 10
        8.00000
 20
        0.00000
 30
        2.70000
 11
        8.00000
 21
        0.00000
 31
        0.00000
 12
        8.00000
 22
        6.00000
 32
        0.00000
 13
        8.00000
 23
        6.00000
 33
        2.70000
999
ZONE ONE:ZONE SURFACE SOUTH
  0
3DFACE
  8
ZONE_ONE
 62
 43
 10
        0.00000
 20
        0.00000
 30
        2.70000
 11
        0.00000
 21
        0.00000
 31
        0.00000
 12
        8.00000
 22
        0.00000
 32
        0.00000
 13
        8.00000
 23
        0.00000
 33
        2.70000
999
ZONE ONE:ZONE SURFACE WEST
  0
3DFACE
  8
ZONE_ONE
 62
 43
 10
        0.00000
 20
        6.00000
 30
        2.70000
 11
        0.00000
 21
        6.00000
 31
        0.00000
 12
        0.00000
 22
        0.00000
 32
        0.00000
 13
        0.00000
 23
        0.00000
 33
        2.70000
999
ZONE ONE:ZONE SURFACE FLOOR
  0
3DFACE
  8
ZONE_ONE
 62
  8
 10
        0.00000
 20
        0.00000
 30
        0.00000
 11
        0.00000
 21
        6.00000
 31
        0.00000
 12
        8.00000
 22
        6.00000
 32
        0.00000
 13
        8.00000
 23
        0.00000
 33
        0.00000
999
ZONE ONE:ZONE SURFACE ROOF
  0
3DFACE
  8
ZONE_ONE
 62
 15
 10
        0.00000
 20
        6.00000
 30
        2.70000
 11
        0.00000
 21
        0.00000
 31
        2.70000
 12
        8.00000
 22
        0.00000
 32
        2.70000
 13
        8.00000
 23
        6.00000
 33
        2.70000
  0
ENDSEC
  0
EOF
